examples/data/enwl/lv-network-models/network_22/Feeder_1/Loads.dss
New Load.LOAD1 Phases=1 Bus1=187.1 kV=0.23 kW=1 PF=0.95
New Load.LOAD2 Phases=1 Bus1=203.1 kV=0.23 kW=1 PF=0.95
New Load.LOAD3 Phases=1 Bus1=217.2 kV=0.23 kW=1 PF=0.95
New Load.LOAD4 Phases=1 Bus1=228.3 kV=0.23 kW=1 PF=0.95
New Load.LOAD5 Phases=1 Bus1=232.2 kV=0.23 kW=1 PF=0.95
New Load.LOAD6 Phases=1 Bus1=257.1 kV=0.23 kW=1 PF=0.95
New Load.LOAD7 Phases=1 Bus1=271.1 kV=0.23 kW=1 PF=0.95
New Load.LOAD8 Phases=1 Bus1=286.2 kV=0.23 kW=1 PF=0.95
New Load.LOAD9 Phases=1 Bus1=292.3 kV=0.23 kW=1 PF=0.95
New Load.LOAD10 Phases=1 Bus1=315.2 kV=0.23 kW=1 PF=0.95
New Load.LOAD11 Phases=1 Bus1=336.2 kV=0.23 kW=1 PF=0.95
New Load.LOAD12 Phases=1 Bus1=344.3 kV=0.23 kW=1 PF=0.95
New Load.LOAD13 Phases=1 Bus1=346.1 kV=0.23 kW=1 PF=0.95
New Load.LOAD14 Phases=1 Bus1=355.1 kV=0.23 kW=1 PF=0.95
New Load.LOAD15 Phases=1 Bus1=370.1 kV=0.23 kW=1 PF=0.95
New Load.LOAD16 Phases=1 Bus1=379.3 kV=0.23 kW=1 PF=0.95
New Load.LOAD17 Phases=1 Bus1=387.3 kV=0.23 kW=1 PF=0.95
New Load.LOAD18 Phases=1 Bus1=388.2 kV=0.23 kW=1 PF=0.95
New Load.LOAD19 Phases=1 Bus1=459.1 kV=0.23 kW=1 PF=0.95
New Load.LOAD20 Phases=1 Bus1=560.3 kV=0.23 kW=1 PF=0.95
New Load.LOAD21 Phases=1 Bus1=561.1 kV=0.23 kW=1 PF=0.95
New Load.LOAD22 Phases=1 Bus1=587.2 kV=0.23 kW=1 PF=0.95
New Load.LOAD23 Phases=1 Bus1=597.3 kV=0.23 kW=1 PF=0.95
New Load.LOAD24 Phases=1 Bus1=599.2 kV=0.23 kW=1 PF=0.95
New Load.LOAD25 Phases=1 Bus1=608.1 kV=0.23 kW=1 PF=0.95
New Load.LOAD26 Phases=1 Bus1=650.1 kV=0.23 kW=1 PF=0.95
New Load.LOAD27 Phases=1 Bus1=655.2 kV=0.23 kW=1 PF=0.95
New Load.LOAD28 Phases=1 Bus1=657.2 kV=0.23 kW=1 PF=0.95
New Load.LOAD29 Phases=1 Bus1=674.2 kV=0.23 kW=1 PF=0.95
New Load.LOAD30 Phases=1 Bus1=676.1 kV=0.23 kW=1 PF=0.95
New Load.LOAD31 Phases=1 Bus1=679.3 kV=0.23 kW=1 PF=0.95